<?xml version="1.0" encoding="UTF-8"?>

<!-- generated on Tue Jan 26 08:36:53 2021 by Eclipse SUMO netconvert Version 1.5.0
<configuration xmlns:xsi="http://www.w3.org/2001/XMLSchema-instance" xsi:noNamespaceSchemaLocation="http://sumo.dlr.de/xsd/netconvertConfiguration.xsd">

    <input>
        <osm-files value="map-2.osm"/>
    </input>

    <output>
        <output-file value="padova.net.xml"/>
    </output>

    <projection>
        <proj.utm value="true"/>
    </projection>

    <report>
        <aggregate-warnings value="5"/>
    </report>

</configuration>
-->

<net version="1.3" junctionCornerDetail="5" limitTurnSpeed="5.50" xmlns:xsi="http://www.w3.org/2001/XMLSchema-instance" xsi:noNamespaceSchemaLocation="http://sumo.dlr.de/xsd/net_file.xsd">

    <location netOffset="-724169.97,-5031455.96" convBoundary="0.00,0.00,1588.10,1347.28" origBoundary="11.864494,45.399906,11.884847,45.413526" projParameter="+proj=utm +zone=32 +ellps=WGS84 +datum=WGS84 +units=m +no_defs"/>

    <type id="highway.bridleway" priority="1" numLanes="1" speed="2.78" allow="pedestrian" oneway="1" width="2.00"/>
    <type id="highway.bus_guideway" priority="1" numLanes="1" speed="27.78" allow="bus" oneway="1"/>
    <type id="highway.cycleway" priority="1" numLanes="1" speed="8.33" allow="bicycle" oneway="0" width="1.00"/>
    <type id="highway.footway" priority="1" numLanes="1" speed="2.78" allow="pedestrian" oneway="1" width="2.00"/>
    <type id="highway.ford" priority="1" numLanes="1" speed="2.78" allow="army" oneway="0"/>
    <type id="highway.living_street" priority="2" numLanes="1" speed="2.78" disallow="tram rail_urban rail rail_electric rail_fast ship" oneway="0"/>
    <type id="highway.motorway" priority="14" numLanes="2" speed="39.44" allow="private emergency authority army vip passenger hov taxi bus coach delivery truck trailer motorcycle evehicle custom1 custom2" oneway="1"/>
    <type id="highway.motorway_link" priority="9" numLanes="1" speed="22.22" allow="private emergency authority army vip passenger hov taxi bus coach delivery truck trailer motorcycle evehicle custom1 custom2" oneway="1"/>
    <type id="highway.path" priority="1" numLanes="1" speed="2.78" allow="pedestrian bicycle" oneway="1" width="2.00"/>
    <type id="highway.pedestrian" priority="1" numLanes="1" speed="2.78" allow="pedestrian" oneway="1" width="2.00"/>
    <type id="highway.primary" priority="12" numLanes="2" speed="27.78" disallow="tram rail_urban rail rail_electric rail_fast ship" oneway="0"/>
    <type id="highway.primary_link" priority="7" numLanes="1" speed="22.22" disallow="tram rail_urban rail rail_electric rail_fast ship" oneway="0"/>
    <type id="highway.raceway" priority="15" numLanes="2" speed="83.33" allow="vip" oneway="0"/>
    <type id="highway.residential" priority="3" numLanes="1" speed="13.89" disallow="tram rail_urban rail rail_electric rail_fast ship" oneway="0"/>
    <type id="highway.residential|railway.tram" priority="17" numLanes="1" speed="13.89" disallow="rail_urban rail rail_electric rail_fast ship" oneway="0"/>
    <type id="highway.secondary" priority="11" numLanes="1" speed="27.78" disallow="tram rail_urban rail rail_electric rail_fast ship" oneway="0"/>
    <type id="highway.secondary_link" priority="6" numLanes="1" speed="22.22" disallow="tram rail_urban rail rail_electric rail_fast ship" oneway="0"/>
    <type id="highway.service" priority="1" numLanes="1" speed="5.56" allow="pedestrian delivery bicycle" oneway="0"/>
    <type id="highway.stairs" priority="1" numLanes="1" speed="1.39" allow="pedestrian" oneway="1" width="2.00"/>
    <type id="highway.step" priority="1" numLanes="1" speed="1.39" allow="pedestrian" oneway="1" width="2.00"/>
    <type id="highway.steps" priority="1" numLanes="1" speed="1.39" allow="pedestrian" oneway="1" width="2.00"/>
    <type id="highway.tertiary" priority="10" numLanes="1" speed="22.22" disallow="tram rail_urban rail rail_electric rail_fast ship" oneway="0"/>
    <type id="highway.tertiary_link" priority="5" numLanes="1" speed="22.22" disallow="tram rail_urban rail rail_electric rail_fast ship" oneway="0"/>
    <type id="highway.track" priority="1" numLanes="1" speed="5.56" disallow="tram rail_urban rail rail_electric rail_fast ship" oneway="0"/>
    <type id="highway.trunk" priority="13" numLanes="2" speed="27.78" disallow="pedestrian bicycle tram rail_urban rail rail_electric rail_fast ship" oneway="0"/>
    <type id="highway.trunk_link" priority="8" numLanes="1" speed="22.22" disallow="pedestrian bicycle tram rail_urban rail rail_electric rail_fast ship" oneway="0"/>
    <type id="highway.unclassified" priority="4" numLanes="1" speed="13.89" disallow="tram rail_urban rail rail_electric rail_fast ship" oneway="0"/>
    <type id="highway.unsurfaced" priority="1" numLanes="1" speed="8.33" disallow="tram rail_urban rail rail_electric rail_fast ship" oneway="0"/>
    <type id="railway.highspeed" priority="21" numLanes="1" speed="69.44" allow="rail_fast" oneway="1"/>
    <type id="railway.light_rail" priority="19" numLanes="1" speed="27.78" allow="rail_urban" oneway="1"/>
    <type id="railway.preserved" priority="16" numLanes="1" speed="27.78" allow="rail" oneway="1"/>
    <type id="railway.rail" priority="20" numLanes="1" speed="44.44" allow="rail" oneway="1"/>
    <type id="railway.subway" priority="18" numLanes="1" speed="27.78" allow="rail_urban" oneway="1"/>
    <type id="railway.tram" priority="17" numLanes="1" speed="13.89" allow="tram" oneway="1"/>

    <edge id=":1081234298_0" function="internal">
        <lane id=":1081234298_0_0" index="0" disallow="tram rail_urban rail rail_electric rail_fast ship" speed="13.89" length="4.97" shape="816.65,1034.03 811.68,1033.77"/>
    </edge>
    <edge id=":1102179753_0" function="internal">
        <lane id=":1102179753_0_0" index="0" disallow="tram rail_urban rail rail_electric rail_fast ship" speed="13.89" length="2.67" shape="245.98,697.68 245.66,695.03"/>
    </edge>
    <edge id=":1102179753_1" function="internal">
        <lane id=":1102179753_1_0" index="0" allow="pedestrian bicycle" speed="4.67" length="4.67" width="2.00" shape="245.98,697.68 246.04,696.48 246.55,695.65 247.52,695.18 248.93,695.08"/>
    </edge>
    <edge id=":1102179754_0" function="internal">
        <lane id=":1102179754_0_0" index="0" allow="pedestrian bicycle" speed="2.78" length="0.10" width="2.00" shape="255.74,695.40 255.74,695.40"/>
    </edge>
    <edge id=":1102179779_0" function="internal">
        <lane id=":1102179779_0_0" index="0" allow="pedestrian bicycle" speed="2.78" length="0.22" width="2.00" shape="286.99,695.49 287.06,695.49 287.11,695.49 287.15,695.50 287.22,695.51"/>
    </edge>
    <edge id=":1102179802_0" function="internal">
        <lane id=":1102179802_0_0" index="0" disallow="tram rail_urban rail rail_electric rail_fast ship" speed="8.33" length="4.37" shape="296.87,696.09 297.13,697.36 297.22,698.24 297.21,699.13 297.17,700.43"/>
    </edge>
    <edge id=":1172246953_0" function="internal">
        <lane id=":1172246953_0_0" index="0" disallow="tram rail_urban rail rail_electric rail_fast ship" speed="8.33" length="4.89" shape="784.37,757.11 784.36,762.01"/>
    </edge>
    <edge id=":1172246956_0" function="internal">
        <lane id=":1172246956_0_0" index="0" disallow="tram rail_urban rail rail_electric rail_fast ship" speed="8.33" length="5.07" shape="783.87,743.23 784.02,748.31"/>
    </edge>
    <edge id=":1222841091_0" function="internal">
        <lane id=":1222841091_0_0" index="0" disallow="tram rail_urban rail rail_electric rail_fast ship" speed="13.89" length="13.34" shape="831.87,1032.35 828.41,1032.48 825.29,1033.15 822.16,1033.86 818.69,1034.11"/>
    </edge>
    <edge id=":1222841091_1" function="internal">
        <lane id=":1222841091_1_0" index="0" allow="pedestrian delivery bicycle" speed="9.72" length="13.06" shape="831.87,1032.35 818.96,1030.34"/>
        <lane id=":1222841091_1_1" index="1" allow="pedestrian delivery bicycle" speed="9.72" length="13.06" shape="831.87,1032.35 828.77,1031.66 826.35,1030.39 823.71,1028.84 819.93,1027.28"/>
    </edge>
    <edge id=":1233582991_0" function="internal">
        <lane id=":1233582991_0_0" index="0" disallow="tram rail_urban rail rail_electric rail_fast ship" speed="3.65" length="4.67" shape="734.63,884.95 734.73,886.39 734.35,887.20 733.47,887.37 732.10,886.91"/>
    </edge>
    <edge id=":1365188964_0" function="internal">
        <lane id=":1365188964_0_0" index="0" disallow="tram rail_urban rail rail_electric rail_fast ship" speed="8.33" length="0.27" shape="576.20,713.36 575.94,713.41"/>
    </edge>
    <edge id=":1451934820_0" function="internal">
        <lane id=":1451934820_0_0" index="0" allow="pedestrian delivery bicycle" speed="5.56" length="0.29" shape="455.84,600.30 455.80,600.58"/>
    </edge>
    <edge id=":1451934820_1" function="internal">
        <lane id=":1451934820_1_0" index="0" allow="pedestrian delivery bicycle" speed="5.56" length="0.31" shape="452.63,600.12 452.68,599.82"/>
    </edge>
    <edge id=":1451953235_0" function="internal">
        <lane id=":1451953235_0_0" index="0" disallow="tram rail_urban rail rail_electric rail_fast ship" speed="8.33" length="5.65" shape="289.80,1053.22 291.89,1058.47"/>
    </edge>
    <edge id=":1459072246_0" function="internal">
        <lane id=":1459072246_0_0" index="0" allow="pedestrian delivery bicycle" speed="6.06" length="5.24" shape="1016.33,989.15 1017.53,989.23 1018.68,988.92 1019.77,988.19 1020.80,987.07"/>
    </edge>
    <edge id=":1459072246_1" function="internal">
        <lane id=":1459072246_1_0" index="0" disallow="tram rail_urban rail rail_electric rail_fast ship" speed="13.89" length="2.31" shape="1016.33,989.15 1017.00,989.25 1017.49,989.25 1017.95,989.32 1018.56,989.59"/>
    </edge>
    <edge id=":1459072261_0" function="internal">
        <lane id=":1459072261_0_0" index="0" allow="bus bicycle" speed="13.89" length="7.86" shape="1029.84,1009.41 1029.32,1007.14 1028.85,1005.61 1028.21,1004.14 1027.17,1002.05"/>
    </edge>
    <edge id=":1459072261_1" function="internal">
        <lane id=":1459072261_1_0" index="0" allow="bus bicycle" speed="3.65" length="2.34" shape="1029.84,1009.41 1030.36,1008.06 1031.06,1007.50"/>
    </edge>
    <edge id=":1459072261_6" function="internal">
        <lane id=":1459072261_6_0" index="0" allow="bus bicycle" speed="3.65" length="2.34" shape="1031.06,1007.50 1031.93,1007.72 1032.96,1008.73"/>
    </edge>
    <edge id=":1459072261_2" function="internal">
        <lane id=":1459072261_2_0" index="0" allow="pedestrian delivery bicycle" speed="9.72" length="7.67" shape="1034.70,1001.48 1033.72,1003.56 1033.01,1005.03 1032.70,1006.54 1032.96,1008.73"/>
    </edge>
    <edge id=":1459072261_3" function="internal">
        <lane id=":1459072261_3_0" index="0" allow="bicycle" speed="5.99" length="11.58" shape="1034.70,1001.48 1032.92,1004.74 1031.07,1005.92 1029.15,1005.02 1027.17,1002.05"/>
    </edge>
    <edge id=":1459072261_4" function="internal">
        <lane id=":1459072261_4_0" index="0" disallow="tram rail_urban rail rail_electric rail_fast ship" speed="13.89" length="7.90" shape="1030.38,1001.30 1031.41,1003.40 1032.02,1004.89 1032.45,1006.44 1032.96,1008.73"/>
    </edge>
    <edge id=":1459072261_5" function="internal">
        <lane id=":1459072261_5_0" index="0" allow="bus bicycle" speed="3.68" length="2.02" shape="1030.38,1001.30 1029.86,1002.69 1029.45,1003.03"/>
    </edge>
    <edge id=":1459072261_7" function="internal">
        <lane id=":1459072261_7_0" index="0" allow="bus bicycle" speed="3.68" length="2.79" shape="1029.45,1003.03 1029.15,1003.28 1028.26,1003.07 1027.17,1002.05"/>
    </edge>
    <edge id=":1459105612_0" function="internal">
        <lane id=":1459105612_0_0" index="0" disallow="tram rail_urban rail rail_electric rail_fast ship" speed="13.89" length="7.43" shape="893.78,1153.62 892.80,1151.65 892.18,1150.27 891.63,1148.87 890.85,1146.80"/>
    </edge>
    <edge id=":1459105612_1" function="internal">
        <lane id=":1459105612_1_0" index="0" disallow="tram rail_urban rail rail_electric rail_fast ship" speed="6.87" length="4.14" shape="897.82,1150.22 895.37,1150.30 893.74,1149.85"/>
    </edge>
    <edge id=":1459105612_2" function="internal">
        <lane id=":1459105612_2_0" index="0" disallow="tram rail_urban rail rail_electric rail_fast ship" speed="6.87" length="4.33" shape="893.74,1149.85 893.39,1149.75 891.89,1148.59 890.85,1146.80"/>
    </edge>
    <edge id=":1459105620_0" function="internal">
        <lane id=":1459105620_0_0" index="0" disallow="tram rail_urban rail rail_electric rail_fast ship" speed="5.26" length="7.71" shape="1007.41,1163.65 1009.03,1164.77 1009.46,1166.10 1008.69,1167.64 1006.73,1169.38"/>
    </edge>
    <edge id=":1459121860_0" function="internal">
        <lane id=":1459121860_0_0" index="0" disallow="tram rail_urban rail rail_electric rail_fast ship" speed="10.17" length="5.62" shape="851.81,1038.14 850.66,1036.97 849.70,1036.36 848.58,1035.99 846.97,1035.56"/>
    </edge>
    <edge id=":1459121860_1" function="internal">
        <lane id=":1459121860_1_0" index="0" disallow="tram rail_urban rail rail_electric rail_fast ship" speed="8.32" length="5.57" shape="851.81,1038.14 850.85,1036.86 850.47,1035.80 850.42,1034.61 850.47,1032.96"/>
    </edge>
    <edge id=":1459121924_0" function="internal">
        <lane id=":1459121924_0_0" index="0" disallow="tram rail_urban rail rail_electric rail_fast ship" speed="3.65" length="4.67" shape="824.00,1097.67 824.82,1096.48 825.63,1096.10 826.42,1096.51 827.20,1097.73"/>
    </edge>
    <edge id=":1459121943_0" function="internal">
        <lane id=":1459121943_0_0" index="0" disallow="tram rail_urban rail rail_electric rail_fast ship" speed="13.89" length="9.41" shape="834.89,1173.00 825.65,1174.78"/>
    </edge>
    <edge id=":1459121943_1" function="internal">
        <lane id=":1459121943_1_0" index="0" disallow="tram rail_urban rail rail_electric rail_fast ship" speed="5.99" length="8.02" shape="834.89,1173.00 832.09,1173.30 830.04,1173.00 828.75,1172.12 828.21,1170.65"/>
    </edge>
    <edge id=":1459121943_2" function="internal">
        <lane id=":1459121943_2_0" index="0" disallow="tram rail_urban rail rail_electric rail_fast ship" speed="6.36" length="1.21" shape="831.39,1170.36 831.20,1171.55"/>
    </edge>
    <edge id=":1459121943_3" function="internal">
        <lane id=":1459121943_3_0" index="0" disallow="tram rail_urban rail rail_electric rail_fast ship" speed="3.65" length="1.29" shape="831.39,1170.36 830.78,1171.49"/>
    </edge>
    <edge id=":1459121943_4" function="internal">
        <lane id=":1459121943_4_0" index="0" disallow="tram rail_urban rail rail_electric rail_fast ship" speed="6.36" length="6.70" shape="831.20,1171.55 831.15,1171.84 830.11,1173.07 828.28,1174.05 825.65,1174.78"/>
    </edge>
    <edge id=":1459121943_5" function="internal">
        <lane id=":1459121943_5_0" index="0" disallow="tram rail_urban rail rail_electric rail_fast ship" speed="3.65" length="3.38" shape="830.78,1171.49 830.71,1171.63 829.95,1172.10 829.12,1171.77 828.21,1170.65"/>
    </edge>
    <edge id=":1459165176_0" function="internal">
        <lane id=":1459165176_0_0" index="0" disallow="tram rail_urban rail rail_electric rail_fast ship" speed="8.33" length="5.13" shape="606.44,276.75 606.36,271.62"/>
    </edge>
    <edge id=":1459180112_0" function="internal">
        <lane id=":1459180112_0_0" index="0" disallow="tram rail_urban rail rail_electric rail_fast ship" speed="13.89" length="3.06" shape="347.53,1032.98 345.04,1034.76"/>
    </edge>
    <edge id=":1459180112_1" function="internal">
        <lane id=":1459180112_1_0" index="0" disallow="tram rail_urban rail rail_electric rail_fast ship" speed="3.65" length="2.34" shape="347.53,1032.98 346.09,1032.97 345.31,1032.53"/>
    </edge>
    <edge id=":1459180112_4" function="internal">
        <lane id=":1459180112_4_0" index="0" disallow="tram rail_urban rail rail_electric rail_fast ship" speed="3.65" length="2.34" shape="345.31,1032.53 345.20,1031.64 345.76,1030.31"/>
    </edge>
    <edge id=":1459180112_2" function="internal">
        <lane id=":1459180112_2_0" index="0" disallow="tram rail_urban rail rail_electric rail_fast ship" speed="13.89" length="3.18" shape="343.17,1032.16 345.76,1030.31"/>
    </edge>
    <edge id=":1459180112_3" function="internal">
        <lane id=":1459180112_3_0" index="0" disallow="tram rail_urban rail rail_electric rail_fast ship" speed="3.65" length="2.34" shape="343.17,1032.16 344.61,1032.11 345.40,1032.52"/>
    </edge>
    <edge id=":1459180112_5" function="internal">
        <lane id=":1459180112_5_0" index="0" disallow="tram rail_urban rail rail_electric rail_fast ship" speed="3.65" length="2.34" shape="345.40,1032.52 345.54,1033.41 345.04,1034.76"/>
    </edge>
    <edge id=":1459245068_0" function="internal">
        <lane id=":1459245068_0_0" index="0" disallow="tram rail_urban rail rail_electric rail_fast ship" speed="3.65" length="4.67" shape="809.20,901.56 808.19,902.58 807.33,902.82 806.62,902.28 806.06,900.95"/>
    </edge>
    <edge id=":1459245089_0" function="internal">
        <lane id=":1459245089_0_0" index="0" allow="pedestrian delivery bicycle" speed="7.04" length="6.27" shape="847.35,1016.69 849.06,1015.61 850.29,1014.49 851.04,1013.34 851.33,1012.16"/>
    </edge>
    <edge id=":1459245089_1" function="internal">
        <lane id=":1459245089_1_0" index="0" disallow="tram rail_urban rail rail_electric rail_fast ship" speed="13.89" length="6.82" shape="850.94,1018.97 851.33,1012.16"/>
    </edge>
    <edge id=":1459245094_0" function="internal">
        <lane id=":1459245094_0_0" index="0" allow="pedestrian delivery bicycle" speed="5.56" length="4.25" shape="782.68,1022.70 781.92,1021.92 781.39,1021.03 781.08,1020.04 781.01,1018.95"/>
    </edge>
    <edge id=":1459258137_0" function="internal">
        <lane id=":1459258137_0_0" index="0" disallow="tram rail_urban rail rail_electric rail_fast ship" speed="13.89" length="2.88" shape="664.66,975.40 661.82,975.86"/>
    </edge>
    <edge id=":1459258137_1" function="internal">
        <lane id=":1459258137_1_0" index="0" disallow="tram rail_urban rail rail_electric rail_fast ship" speed="3.65" length="2.22" shape="664.66,975.40 663.39,974.72 662.98,974.05"/>
    </edge>
    <edge id=":1459258137_4" function="internal">
        <lane id=":1459258137_4_0" index="0" disallow="tram rail_urban rail rail_electric rail_fast ship" speed="3.65" length="2.45" shape="662.98,974.05 662.92,973.96 663.24,973.12 664.36,972.21"/>
    </edge>
    <edge id=":1459258137_2" function="internal">
        <lane id=":1459258137_2_0" index="0" disallow="tram rail_urban rail rail_electric rail_fast ship" speed="13.89" length="3.08" shape="661.32,972.70 664.36,972.21"/>
    </edge>
    <edge id=":1459258137_3" function="internal">
        <lane id=":1459258137_3_0" index="0" disallow="tram rail_urban rail rail_electric rail_fast ship" speed="3.65" length="2.34" shape="661.32,972.70 662.63,973.30 663.15,974.03"/>
    </edge>
    <edge id=":1459258137_5" function="internal">
        <lane id=":1459258137_5_0" index="0" disallow="tram rail_urban rail rail_electric rail_fast ship" speed="3.65" length="2.34" shape="663.15,974.03 662.88,974.88 661.82,975.86"/>
    </edge>
    <edge id=":1459258138_0" function="internal">
        <lane id=":1459258138_0_0" index="0" disallow="tram rail_urban rail rail_electric rail_fast ship" speed="13.89" length="5.75" shape="574.20,989.83 568.52,990.74"/>
    </edge>
    <edge id=":1459258138_1" function="internal">
        <lane id=":1459258138_1_0" index="0" disallow="tram rail_urban rail rail_electric rail_fast ship" speed="3.65" length="2.34" shape="574.20,989.83 572.89,989.23 572.37,988.50"/>
    </edge>
    <edge id=":1459258138_4" function="internal">
        <lane id=":1459258138_4_0" index="0" disallow="tram rail_urban rail rail_electric rail_fast ship" speed="3.65" length="2.34" shape="572.37,988.50 572.64,987.65 573.70,986.67"/>
    </edge>
    <edge id=":1459258138_2" function="internal">
        <lane id=":1459258138_2_0" index="0" disallow="tram rail_urban rail rail_electric rail_fast ship" speed="13.89" length="5.76" shape="568.01,987.58 573.70,986.67"/>
    </edge>
    <edge id=":1459258138_3" function="internal">
        <lane id=":1459258138_3_0" index="0" disallow="tram rail_urban rail rail_electric rail_fast ship" speed="3.65" length="2.34" shape="568.01,987.58 569.32,988.18 569.84,988.91"/>
    </edge>
    <edge id=":1459258138_5" function="internal">
        <lane id=":1459258138_5_0" index="0" disallow="tram rail_urban rail rail_electric rail_fast ship" speed="3.65" length="2.34" shape="569.84,988.91 569.58,989.76 568.52,990.74"/>
    </edge>
    <edge id=":1459258139_0" function="internal">
        <lane id=":1459258139_0_0" index="0" disallow="tram rail_urban rail rail_electric rail_fast ship" speed="13.89" length="5.39" shape="553.50,992.55 548.12,992.94"/>
    </edge>
    <edge id=":1459258139_1" function="internal">
        <lane id=":1459258139_1_0" index="0" disallow="tram rail_urban rail rail_electric rail_fast ship" speed="3.65" length="2.34" shape="553.50,992.55 552.23,991.88 551.75,991.12"/>
    </edge>
    <edge id=":1459258139_4" function="internal">
        <lane id=":1459258139_4_0" index="0" disallow="tram rail_urban rail rail_electric rail_fast ship" speed="3.65" length="2.34" shape="551.75,991.12 552.06,990.29 553.18,989.37"/>
    </edge>
    <edge id=":1459258139_2" function="internal">
        <lane id=":1459258139_2_0" index="0" disallow="tram rail_urban rail rail_electric rail_fast ship" speed="13.89" length="5.22" shape="547.97,989.75 553.18,989.37"/>
    </edge>
    <edge id=":1459258139_3" function="internal">
        <lane id=":1459258139_3_0" index="0" disallow="tram rail_urban rail rail_electric rail_fast ship" speed="3.65" length="2.34" shape="547.97,989.75 549.20,990.49 549.64,991.27"/>
    </edge>
    <edge id=":1459258139_5" function="internal">
        <lane id=":1459258139_5_0" index="0" disallow="tram rail_urban rail rail_electric rail_fast ship" speed="3.65" length="2.34" shape="549.64,991.27 549.28,992.09 548.12,992.94"/>
    </edge>
    <edge id=":1459270005_0" function="internal">
        <lane id=":1459270005_0_0" index="0" disallow="tram rail_urban rail rail_electric rail_fast ship" speed="13.89" length="5.14" shape="467.68,991.68 462.54,991.76"/>
    </edge>
    <edge id=":1459270005_1" function="internal">
        <lane id=":1459270005_1_0" index="0" disallow="tram rail_urban rail rail_electric rail_fast ship" speed="3.65" length="2.34" shape="467.68,991.68 466.45,990.91 466.03,990.12"/>
    </edge>
    <edge id=":1459270005_4" function="internal">
        <lane id=":1459270005_4_0" index="0" disallow="tram rail_urban rail rail_electric rail_fast ship" speed="3.65" length="2.34" shape="466.03,990.12 466.41,989.31 467.59,988.48"/>
    </edge>
    <edge id=":1459270005_2" function="internal">
        <lane id=":1459270005_2_0" index="0" disallow="tram rail_urban rail rail_electric rail_fast ship" speed="13.89" length="5.07" shape="462.52,988.56 467.59,988.48"/>
    </edge>
    <edge id=":1459270005_3" function="internal">
        <lane id=":1459270005_3_0" index="0" disallow="tram rail_urban rail rail_electric rail_fast ship" speed="3.65" length="2.34" shape="462.52,988.56 463.72,989.35 464.13,990.15"/>
    </edge>
    <edge id=":1459270005_5" function="internal">
        <lane id=":1459270005_5_0" index="0" disallow="tram rail_urban rail rail_electric rail_fast ship" speed="3.65" length="2.34" shape="464.13,990.15 463.73,990.95 462.54,991.76"/>
    </edge>
    <edge id=":1459309077_0" function="internal">
        <lane id=":1459309077_0_0" index="0" allow="pedestrian delivery bicycle" speed="3.65" length="4.67" shape="801.41,931.49 802.27,930.33 803.09,929.98 803.87,930.42 804.61,931.66"/>
    </edge>
    <edge id=":1459353831_0" function="internal">
        <lane id=":1459353831_0_0" index="0" disallow="tram rail_urban rail rail_electric rail_fast ship" speed="13.89" length="6.35" shape="1232.08,172.31 1225.84,171.14"/>
    </edge>
    <edge id=":1459353831_1" function="internal">
        <lane id=":1459353831_1_0" index="0" allow="bus bicycle" speed="3.65" length="2.34" shape="1232.08,172.31 1231.06,171.28 1230.83,170.42"/>
    </edge>
    <edge id=":1459353831_4" function="internal">
        <lane id=":1459353831_4_0" index="0" allow="bus bicycle" speed="3.65" length="2.34" shape="1230.83,170.42 1231.38,169.71 1232.71,169.17"/>
    </edge>
    <edge id=":1459353831_2" function="internal">
        <lane id=":1459353831_2_0" index="0" allow="bus bicycle" speed="13.89" length="6.45" shape="1226.37,167.99 1232.71,169.17"/>
    </edge>
    <edge id=":1459353831_3" function="internal">
        <lane id=":1459353831_3_0" index="0" allow="bus bicycle" speed="3.65" length="2.34" shape="1226.37,167.99 1227.42,168.98 1227.68,169.83"/>
    </edge>
    <edge id=":1459353831_5" function="internal">
        <lane id=":1459353831_5_0" index="0" allow="bus bicycle" speed="3.65" length="2.34" shape="1227.68,169.83 1227.15,170.55 1225.84,171.14"/>
    </edge>
    <edge id=":1461115226_0" function="internal">
        <lane id=":1461115226_0_0" index="0" disallow="tram rail_urban rail rail_electric rail_fast ship" speed="8.33" length="6.21" shape="1035.42,1136.90 1040.37,1133.15"/>
    </edge>
    <edge id=":1461869753_0" function="internal">
        <lane id=":1461869753_0_0" index="0" disallow="tram rail_urban rail rail_electric rail_fast ship" speed="8.33" length="19.40" shape="870.27,695.98 851.38,700.42"/>
    </edge>
    <edge id=":1461869753_1" function="internal">
        <lane id=":1461869753_1_0" index="0" disallow="tram rail_urban rail rail_electric rail_fast ship" speed="8.33" length="8.82" shape="870.27,695.98 864.39,696.79 861.53,696.39"/>
    </edge>
    <edge id=":1461869753_2" function="internal">
        <lane id=":1461869753_2_0" index="0" disallow="tram rail_urban rail rail_electric rail_fast ship" speed="3.65" length="2.34" shape="870.27,695.98 868.91,695.47 868.34,694.79"/>
    </edge>
    <edge id=":1461869753_6" function="internal">
        <lane id=":1461869753_6_0" index="0" disallow="tram rail_urban rail rail_electric rail_fast ship" speed="8.33" length="9.74" shape="861.53,696.39 859.80,696.15 856.48,694.06 854.44,690.53"/>
    </edge>
    <edge id=":1461869753_7" function="internal">
        <lane id=":1461869753_7_0" index="0" disallow="tram rail_urban rail rail_electric rail_fast ship" speed="3.65" length="2.34" shape="868.34,694.79 868.55,693.92 869.53,692.86"/>
    </edge>
    <edge id=":1461869753_3" function="internal">
        <lane id=":1461869753_3_0" index="0" disallow="tram rail_urban rail rail_electric rail_fast ship" speed="6.33" length="9.04" shape="850.65,697.31 852.98,696.39 854.39,694.95 854.88,693.00 854.44,690.53"/>
    </edge>
    <edge id=":1461869753_4" function="internal">
        <lane id=":1461869753_4_0" index="0" disallow="tram rail_urban rail rail_electric rail_fast ship" speed="8.33" length="19.40" shape="850.65,697.31 869.53,692.86"/>
    </edge>
    <edge id=":1461869753_5" function="internal">
        <lane id=":1461869753_5_0" index="0" disallow="tram rail_urban rail rail_electric rail_fast ship" speed="3.65" length="2.34" shape="850.65,697.31 852.00,697.81 852.57,698.50"/>
    </edge>
    <edge id=":1461869753_8" function="internal">
        <lane id=":1461869753_8_0" index="0" disallow="tram rail_urban rail rail_electric rail_fast ship" speed="3.65" length="2.34" shape="852.57,698.50 852.36,699.37 851.38,700.42"/>
    </edge>
    <edge id=":1463860084_0" function="internal">
        <lane id=":1463860084_0_0" index="0" disallow="tram rail_urban rail rail_electric rail_fast ship" speed="13.89" length="4.53" shape="827.20,1097.93 827.11,1102.46"/>
    </edge>
    <edge id=":1463860084_1" function="internal">
        <lane id=":1463860084_1_0" index="0" disallow="tram rail_urban rail rail_electric rail_fast ship" speed="3.65" length="2.34" shape="827.20,1097.93 826.38,1099.11 825.57,1099.50"/>
    </edge>
    <edge id=":1463860084_4" function="internal">
        <lane id=":1463860084_4_0" index="0" disallow="tram rail_urban rail rail_electric rail_fast ship" speed="3.65" length="2.34" shape="825.57,1099.50 824.78,1099.08 824.00,1097.87"/>
    </edge>
    <edge id=":1463860084_2" function="internal">
        <lane id=":1463860084_2_0" index="0" disallow="tram rail_urban rail rail_electric rail_fast ship" speed="13.89" length="4.53" shape="823.91,1102.40 824.00,1097.87"/>
    </edge>
    <edge id=":1463860084_3" function="internal">
        <lane id=":1463860084_3_0" index="0" disallow="tram rail_urban rail rail_electric rail_fast ship" speed="3.65" length="2.34" shape="823.91,1102.40 824.74,1101.21 825.54,1100.83"/>
    </edge>
    <edge id=":1463860084_5" function="internal">
        <lane id=":1463860084_5_0" index="0" disallow="tram rail_urban rail rail_electric rail_fast ship" speed="3.65" length="2.34" shape="825.54,1100.83 826.34,1101.24 827.11,1102.46"/>
    </edge>
    <edge id=":1463860087_0" function="internal">
        <lane id=":1463860087_0_0" index="0" disallow="tram rail_urban rail rail_electric rail_fast ship" speed="13.89" length="5.00" shape="778.06,1116.71 777.75,1121.70"/>
    </edge>
    <edge id=":1463860090_0" function="internal">
        <lane id=":1463860090_0_0" index="0" disallow="tram rail_urban rail rail_electric rail_fast ship" speed="13.89" length="5.00" shape="825.75,1142.58 825.35,1137.60"/>
    </edge>
    <edge id=":1463860090_1" function="internal">
        <lane id=":1463860090_1_0" index="0" disallow="tram rail_urban rail rail_electric rail_fast ship" speed="3.65" length="2.34" shape="825.75,1142.58 826.45,1141.32 827.21,1140.86"/>
    </edge>
    <edge id=":1463860090_4" function="internal">