<?xml version="1.0" encoding="UTF-8"?>
<!-- generated on 2021-01-26 08:45:58.300375 by randomTrips.py UNKNOWN
  options: -n padova.net.xml -r padovaRoute.rou.xml -e 100 -l
-->
<routes xmlns:xsi="http://www.w3.org/2001/XMLSchema-instance" xsi:noNamespaceSchemaLocation="http://sumo.dlr.de/xsd/routes_file.xsd">
    <trip id="0" depart="0.00" from="64115339" to="30603313"/>
    <trip id="1" depart="1.00" from="27198515" to="29702145"/>
    <trip id="2" depart="2.00" from="27198540#0" to="29994300#1"/>
    <trip id="3" depart="3.00" from="30601315#0" to="27198531#0"/>
    <trip id="4" depart="4.00" from="27198524" to="-29994223#4"/>
    <trip id="5" depart="5.00" from="-30267630" to="29994223#6"/>
    <trip id="6" depart="6.00" from="-30602359#1" to="50076179#1"/>
    <trip id="7" depart="7.00" from="760540697#0" to="760540697#0"/>
    <trip id="8" depart="8.00" from="255422871#0" to="-255422871#0"/>
    <trip id="9" depart="9.00" from="29994223#3" to="-29494037#1"/>
    <trip id="10" depart="10.00" from="-30016481#0" to="29984714#1"/>
    <trip id="11" depart="11.00" from="50076179#0" to="27196925#0"/>
    <trip id="12" depart="12.00" from="41865752" to="27198512#2"/>
    <trip id="13" depart="13.00" from="-22885812#1" to="-27789942#1"/>
    <trip id="14" depart="14.00" from="30016995" to="18821048#1"/>
    <trip id="15" depart="15.00" from="50076178#3" to="27196958"/>
    <trip id="16" depart="16.00" from="18821051#3" to="30137739"/>
    <trip id="17" depart="17.00" from="-30001430#1" to="30016935#1"/>
    <trip id="18" depart="18.00" from="27198558" to="30016949#1"/>
    <trip id="19" depart="19.00" from="30602080#1" to="30134242"/>
    <trip id="20" depart="20.00" from="27196925#1" to="30016979#0"/>
    <trip id="21" depart="21.00" from="27198540#0" to="-41865752"/>
    <trip id="22" depart="22.00" from="29994223#3" to="30016985#3"/>
    <trip id="23" depart="23.00" from="30130344#0" to="30016619"/>
    <trip id="24" depart="24.00" from="-27198543#1" to="30134236#0"/>
    <trip id="25" depart="25.00" from="29994223#3" to="-30001430#1"/>
    <trip id="26" depart="26.00" from="27380643#1" to="27380643#3"/>
    <trip id="27" depart="27.00" from="27196215" to="30016523#0"/>
    <trip id="28" depart="28.00" from="30130260#0" to="-30001430#0"/>
    <trip id="29" depart="29.00" from="30016215#2" to="30134236#1"/>
    <trip id="30" depart="30.00" from="30016623#0" to="30016979#2"/>
    <trip id="31" depart="31.00" from="22635975#2" to="27198512#2"/>
    <trip id="32" depart="32.00" from="27196958" to="64115339"/>
    <trip id="33" depart="33.00" from="23543766" to="23637879#2"/>
    <trip id="34" depart="34.00" from="29994525#0" to="27198543#2"/>
    <trip id="35" depart="35.00" from="30017104#0" to="22635975#2"/>
    <trip id="36" depart="36.00" from="22995259#0" to="27196925#1"/>
    <trip id="37" depart="37.00" from="30601315#0" to="30016950#1"/>
    <trip id="38" depart="38.00" from="22635975#2" to="30267370"/>
    <trip id="39" depart="39.00" from="760540697#0" to="255422871#0"/>
    <trip id="40" depart="40.00" from="30130339#1" to="30016421#5"/>
    <trip id="41" depart="41.00" from="30019572#1" to="30016284#1"/>
    <trip id="42" depart="42.00" from="23543766" to="30134200#3"/>
    <trip id="43" depart="43.00" from="30137716" to="30001412"/>
    <trip id="44" depart="44.00" from="29994460" to="22994936#1"/>
    <trip id="45" depart="45.00" from="30016215#1" to="50076178#4"/>
    <trip id="46" depart="46.00" from="27198512#1" to="27198530"/>
    <trip id="47" depart="47.00" from="30438241" to="27380643#1"/>
    <trip id="48" depart="48.00" from="-29994223#6" to="30134408"/>
    <trip id="49" depart="49.00" from="30001430#0" to="-511308504#0"/>
    <trip id="50" depart="50.00" from="-30001430#1" to="30134286"/>
    <trip id="51" depart="51.00" from="30601315#0" to="27196925#0"/>
    <trip id="52" depart="52.00" from="-30602290" to="30016284#0"/>
    <trip id="53" depart="53.00" from="30017104#0" to="27196958"/>
    <trip id="54" depart="54.00" from="27212508#2" to="18821051#1"/>
    <trip id="55" depart="55.00" from="27198540#2" to="27789944"/>
    <trip id="56" depart="56.00" from="27198553" to="30601243"/>
    <trip id="57" depart="57.00" from="30134242" to="30438241"/>
    <trip id="58" depart="58.00" from="18821052#1" to="27198531#0"/>
    <trip id="59" depart="59.00" from="30137639" to="18821050"/>
    <trip id="60" depart="60.00" from="30016979#2" to="-511308504#0"/>
    <trip id="61" depart="61.00" from="-29994223#6" to="-132846122#0"/>
    <trip id="62" depart="62.00" from="-255422871#0" to="30016979#2"/>
    <trip id="63" depart="63.00" from="760799212" to="27198512#2"/>
    <trip id="64" depart="64.00" from="50076181#0" to="30019531"/>
    <trip id="65" depart="65.00" from="30134478#0" to="-29994223#1"/>
    <trip id="66" depart="66.00" from="-132652453#1" to="-27198543#2"/>
    <trip id="67" depart="67.00" from="18821048#1" to="27196219#2"/>
    <trip id="68" depart="68.00" from="704158515#1" to="30019570"/>
    <trip id="69" depart="69.00" from="217759810" to="27196925#0"/>
    <trip id="70" depart="70.00" from="704158515#1" to="30130361#2"/>
    <trip id="71" depart="71.00" from="30130361#1" to="30137716"/>
    <trip id="72" depart="72.00" from="30130339#1" to="22885811#0"/>
    <trip id="73" depart="73.00" from="30134200#3" to="30016347#0"/>
    <trip id="74" depart="74.00" from="30267370" to="29994611#2"/>
    <trip id="75" depart="75.00" from="30016979#1" to="30130361#0"/>
    <trip id="76" depart="76.00" from="30137726#1" to="30137874"/>
    <trip id="77" depart="77.00" from="27198530" to="27789937#0"/>
    <trip id="78" depart="78.00" from="18821051#2" to="30016931"/>
    <trip id="79" depart="79.00" from="30016421#4" to="27198526#3"/>
    <trip id="80" depart="80.00" from="27198523#0" to="29994525#0"/>
    <trip id="81" depart="81.00" from="27380643#0" to="30137874"/>
    <trip id="82" depart="82.00" from="27198523#1" to="27196958"/>
    <trip id="83" depart="83.00" from="30016522#0" to="-29994223#5"/>
    <trip id="84" depart="84.00" from="-30137925" to="27198531#0"/>
    <trip id="85" depart="85.00" from="-511308504#0" to="29994300#2"/>
    <trip id="86" depart="86.00" from="30016979#1" to="27380643#3"/>
    <trip id="87" depart="87.00" from="29994525#2" to="27198527#0"/>
    <trip id="88" depart="88.00" from="22885811#3" to="30134215"/>
    <trip id="89" depart="89.00" from="-30001430#1" to="27196219#2"/>
    <trip id="90" depart="90.00" from="27198543#2" to="30601094"/>
    <trip id="91" depart="91.00" from="27789945" to="30134236#1"/>
    <trip id="92" depart="92.00" from="30267544" to="-27198543#2"/>
    <trip id="93" depart="93.00" from="27198543#2" to="-27380645"/>
    <trip id="94" depart="94.00" from="-255422871#1" to="29994223#1"/>
    <trip id="95" depart="95.00" from="27789945" to="30001411#0"/>
    <trip id="96" depart="96.00" from="27198543#2" to="50076178#1"/>
    <trip id="97" depart="97.00" from="23637879#1" to="30134305#1"/>
    <trip id="98" depart="98.00" from="-27789937#0" to="27198526#3"/>
    <trip id="99" depart="99.00" from="18821051#3" to="29994223#6"/>
</routes>
