<?xml version= "1.0" encoding = "UTF-8"?>

<configuration>
    <input>
        <net-file value = "padovaNet.net.xml"/>
        <route-files value = "padovaRoute2.rou.xml"/>
    </input>
    <output>
        <tripinfo-output value = "padovaInfo2.xml"/>
        <emission-output value = "padovaEmissions2.xml"/>
        </output>
        
        <time>
        <begin value = "0"/>
        <end value = "1800"/>
        </time>
</configuration>
